LYSRSCPZ-x0654_A_805_1_LYSRSCPZ-x0602+B+701+1__LIG
     RDKit          3D

 18 19  0  0  0  0  0  0  0  0999 V2000
    5.2020  -14.1480   24.7170 O   0  0  0  0  0  0  0  0  0  0  0  0
    3.9830  -14.0400   24.9070 C   0  0  0  0  0  0  0  0  0  0  0  0
    3.2150  -13.2880   24.0940 N   0  0  0  0  0  0  0  0  0  0  0  0
    3.7330  -12.5780   22.9430 C   0  0  0  0  0  0  0  0  0  0  0  0
    4.3130  -11.2210   23.2660 C   0  0  0  0  0  0  0  0  0  0  0  0
    4.1150  -10.6300   24.5080 C   0  0  0  0  0  0  0  0  0  0  0  0
    4.6370   -9.3980   24.8000 C   0  0  0  0  0  0  0  0  0  0  0  0
    5.3770   -8.7180   23.8450 C   0  0  0  0  0  0  0  0  0  0  0  0
    5.9230   -7.4210   24.1530 C   0  0  0  0  0  0  0  0  0  0  0  0
    6.4030   -6.4300   24.4360 N   0  0  0  0  0  0  0  0  0  0  0  0
    5.5650   -9.2760   22.5910 C   0  0  0  0  0  0  0  0  0  0  0  0
    5.0460  -10.5300   22.3190 C   0  0  0  0  0  0  0  0  0  0  0  0
    3.3690  -14.7520   25.9200 N   0  0  0  0  0  0  0  0  0  0  0  0
    1.9360  -14.6890   26.2210 C   0  0  0  0  0  0  0  0  0  0  0  0
    1.6240  -14.9520   27.6750 C   0  0  0  0  0  0  0  0  0  0  0  0
    2.2760  -16.1130   28.1710 O   0  0  0  0  0  0  0  0  0  0  0  0
    3.6750  -15.9040   28.0820 C   0  0  0  0  0  0  0  0  0  0  0  0
    4.1310  -15.7610   26.6550 C   0  0  0  0  0  0  0  0  0  0  0  0
  1  2  2  0
  2  3  1  0
  3  4  1  0
  4  5  1  0
  5  6  2  0
  6  7  1  0
  7  8  2  0
  8  9  1  0
  9 10  3  0
  8 11  1  0
 11 12  2  0
  2 13  1  0
 13 14  1  0
 14 15  1  0
 15 16  1  0
 16 17  1  0
 17 18  1  0
  5 12  1  0
 13 18  1  0
M  END
$$$$
