LYSRSCPZ-x0421_A_805_1_LYSRSCPZ-x0602+B+701+1__LIG
     RDKit          3D

 15 16  0  0  0  0  0  0  0  0999 V2000
    0.0080  -14.0240   26.9700 C   0  0  0  0  0  0  0  0  0  0  0  0
    1.4190  -14.1820   26.6470 N   0  0  0  0  0  0  0  0  0  0  0  0
    2.3000  -15.0790   27.1440 C   0  0  0  0  0  0  0  0  0  0  0  0
    3.4990  -14.8460   26.5480 C   0  0  0  0  0  0  0  0  0  0  0  0
    4.9480  -15.7150   26.8590 Cl  0  0  0  0  0  0  0  0  0  0  0  0
    3.3030  -13.7740   25.6610 C   0  0  0  0  0  0  0  0  0  0  0  0
    2.0220  -13.3730   25.7310 N   0  0  0  0  0  0  0  0  0  0  0  0
    4.2290  -13.0650   24.7500 C   0  0  0  0  0  0  0  0  0  0  0  0
    5.0570  -13.6830   24.0760 O   0  0  0  0  0  0  0  0  0  0  0  0
    4.0920  -11.7280   24.7230 N   0  0  0  0  0  0  0  0  0  0  0  0
    4.2310  -10.8490   23.5730 C   0  0  0  0  0  0  0  0  0  0  0  0
    4.9220   -9.5400   23.9380 C   0  0  0  0  0  0  0  0  0  0  0  0
    5.3360   -8.9510   22.5890 C   0  0  0  0  0  0  0  0  0  0  0  0
    5.2950  -10.1020   21.5990 C   0  0  0  0  0  0  0  0  0  0  0  0
    5.0930  -11.3610   22.4350 C   0  0  0  0  0  0  0  0  0  0  0  0
  1  2  1  0
  2  3  1  0
  3  4  2  0
  4  5  1  0
  4  6  1  0
  6  7  2  0
  6  8  1  0
  8  9  2  0
  8 10  1  0
 10 11  1  0
 11 12  1  0
 12 13  1  0
 13 14  1  0
 14 15  1  0
  2  7  1  0
 11 15  1  0
M  END
$$$$
