LYSRSCPZ-x0759_B_601_1_LYSRSCPZ-x0602+B+701+1__LIG
     RDKit          3D

 18 19  0  0  0  0  0  0  0  0999 V2000
    0.7620  -12.7980   26.4620 C   0  0  0  0  0  0  0  0  0  0  0  0
    1.7500  -13.7690   27.0010 C   0  0  0  0  0  0  0  0  0  0  0  0
    1.5170  -14.3270   28.1550 N   0  0  0  0  0  0  0  0  0  0  0  0
    2.6070  -15.1940   28.4000 O   0  0  0  0  0  0  0  0  0  0  0  0
    3.4450  -15.1240   27.3770 C   0  0  0  0  0  0  0  0  0  0  0  0
    4.6480  -15.9710   27.4770 C   0  0  0  0  0  0  0  0  0  0  0  0
    2.9680  -14.2370   26.4650 C   0  0  0  0  0  0  0  0  0  0  0  0
    3.6270  -13.9180   25.1930 C   0  0  0  0  0  0  0  0  0  0  0  0
    4.4650  -14.6720   24.7190 O   0  0  0  0  0  0  0  0  0  0  0  0
    3.3000  -12.7990   24.5560 N   0  0  0  0  0  0  0  0  0  0  0  0
    3.7170  -12.5380   23.1840 C   0  0  0  0  0  0  0  0  0  0  0  0
    5.1500  -12.0620   23.0810 C   0  0  0  0  0  0  0  0  0  0  0  0
    5.3410  -10.5970   23.4100 C   0  0  0  0  0  0  0  0  0  0  0  0
    5.2920   -9.6740   22.4480 C   0  0  0  0  0  0  0  0  0  0  0  0
    5.2740   -8.1970   22.6820 C   0  0  0  0  0  0  0  0  0  0  0  0
    5.3450   -7.8220   24.1270 C   0  0  0  0  0  0  0  0  0  0  0  0
    5.9880   -8.7940   25.0630 C   0  0  0  0  0  0  0  0  0  0  0  0
    5.6080  -10.2400   24.8340 C   0  0  0  0  0  0  0  0  0  0  0  0
  1  2  1  0
  2  3  2  0
  3  4  1  0
  4  5  1  0
  5  6  1  0
  5  7  2  0
  7  8  1  0
  8  9  2  0
  8 10  1  0
 10 11  1  0
 11 12  1  0
 12 13  1  0
 13 14  2  0
 14 15  1  0
 15 16  1  0
 16 17  1  0
 17 18  1  0
  2  7  1  0
 13 18  1  0
M  END
$$$$
