LYSRSCPZ-x0602_D_802_1_LYSRSCPZ-x0602+B+701+1__LIG
     RDKit          3D

 14 14  0  0  0  0  0  0  0  0999 V2000
    6.0030   -8.3820   24.6890 C   0  0  0  0  0  0  0  0  0  0  0  0
    5.5890   -9.1440   23.5220 N   0  0  0  0  0  0  0  0  0  0  0  0
    5.5780   -8.4170   22.2640 C   0  0  0  0  0  0  0  0  0  0  0  0
    5.1970  -10.4450   23.6040 C   0  0  0  0  0  0  0  0  0  0  0  0
    5.0610  -11.1150   24.8420 C   0  0  0  0  0  0  0  0  0  0  0  0
    4.6550  -12.4400   24.8600 C   0  0  0  0  0  0  0  0  0  0  0  0
    4.4950  -13.1760   26.1710 C   0  0  0  0  0  0  0  0  0  0  0  0
    3.3080  -14.0330   26.2120 N   0  0  0  0  0  0  0  0  0  0  0  0
    3.2900  -15.3130   25.8250 C   0  0  0  0  0  0  0  0  0  0  0  0
    4.2920  -15.9280   25.4380 O   0  0  0  0  0  0  0  0  0  0  0  0
    1.9390  -15.9570   25.8670 C   0  0  0  0  0  0  0  0  0  0  0  0
    4.4020  -13.0670   23.6510 C   0  0  0  0  0  0  0  0  0  0  0  0
    4.5520  -12.3510   22.4810 C   0  0  0  0  0  0  0  0  0  0  0  0
    4.9400  -11.0740   22.4340 N   0  0  0  0  0  0  0  0  0  0  0  0
  1  2  1  0
  2  3  1  0
  2  4  1  0
  4  5  2  0
  5  6  1  0
  6  7  1  0
  7  8  1  0
  8  9  1  0
  9 10  2  0
  9 11  1  0
  6 12  2  0
 12 13  1  0
 13 14  2  0
  4 14  1  0
M  END
$$$$
