LYSRSCPZ-x0540_C_1301_1_LYSRSCPZ-x0602+B+701+1__LIG
     RDKit          3D

 13 13  0  0  0  0  0  0  0  0999 V2000
    6.3180   -8.6920   23.9310 C   0  0  0  0  0  0  0  0  0  0  0  0
    5.1590   -8.5660   22.9470 C   0  0  0  0  0  0  0  0  0  0  0  0
    5.4550   -9.2990   21.6390 C   0  0  0  0  0  0  0  0  0  0  0  0
    3.8370   -9.0160   23.6260 C   0  0  1  0  0  0  0  0  0  0  0  0
    2.6000   -8.8150   22.7970 N   0  0  0  0  0  0  0  0  0  0  0  0
    3.9080  -10.4830   24.0290 C   0  0  0  0  0  0  0  0  0  0  0  0
    3.6740  -11.3370   23.1730 O   0  0  0  0  0  0  0  0  0  0  0  0
    4.2330  -10.8190   25.2970 N   0  0  0  0  0  0  0  0  0  0  0  0
    4.4250  -12.2320   25.6470 C   0  0  0  0  0  0  0  0  0  0  0  0
    3.3840  -12.6500   26.6570 C   0  0  0  0  0  0  0  0  0  0  0  0
    3.4630  -11.8420   27.8260 O   0  0  0  0  0  0  0  0  0  0  0  0
    3.2250  -10.4760   27.4910 C   0  0  0  0  0  0  0  0  0  0  0  0
    4.2300   -9.9610   26.4890 C   0  0  0  0  0  0  0  0  0  0  0  0
  1  2  1  0
  2  3  1  0
  2  4  1  0
  4  5  1  6
  4  6  1  0
  6  7  2  0
  6  8  1  0
  8  9  1  0
  9 10  1  0
 10 11  1  0
 11 12  1  0
 12 13  1  0
  8 13  1  0
M  CHG  1   5   1
M  END
$$$$
