LYSRSCPZ-x0472_A_805_1_LYSRSCPZ-x0472+A+805+1__LIG
     RDKit          3D

 14 14  0  0  0  0  0  0  0  0999 V2000
   20.9840    8.1230   25.7760 C   0  0  0  0  0  0  0  0  0  0  0  0
   22.0420    8.8040   25.0310 N   0  0  0  0  0  0  0  0  0  0  0  0
   22.7680    7.8620   24.1600 C   0  0  0  0  0  0  0  0  0  0  0  0
   23.6480    6.9470   24.9780 C   0  0  0  0  0  0  0  0  0  0  0  0
   23.5010    5.5670   24.9360 C   0  0  0  0  0  0  0  0  0  0  0  0
   24.3030    4.7450   25.7170 C   0  0  0  0  0  0  0  0  0  0  0  0
   25.2570    5.2820   26.5480 C   0  0  0  0  0  0  0  0  0  0  0  0
   25.3860    6.6400   26.5720 C   0  0  0  0  0  0  0  0  0  0  0  0
   26.3170    7.1980   27.3870 F   0  0  0  0  0  0  0  0  0  0  0  0
   24.6100    7.4840   25.8200 C   0  0  0  0  0  0  0  0  0  0  0  0
   21.7600   10.3280   24.4860 S   0  0  0  0  0  0  0  0  0  0  0  0
   23.0110   10.9950   24.4860 O   0  0  0  0  0  0  0  0  0  0  0  0
   21.0100   10.2140   23.2900 O   0  0  0  0  0  0  0  0  0  0  0  0
   20.8340   11.0620   25.5590 N   0  0  0  0  0  0  0  0  0  0  0  0
  1  2  1  0
  2  3  1  0
  3  4  1  0
  4  5  2  0
  5  6  1  0
  6  7  2  0
  7  8  1  0
  8  9  1  0
  8 10  2  0
  2 11  1  0
 11 12  2  0
 11 13  2  0
 11 14  1  0
  4 10  1  0
M  END
$$$$
