LYSRSCPZ-x0485_D_901_1_LYSRSCPZ-x0407+D+802+1__LIG
     RDKit          3D

 17 18  0  0  0  0  0  0  0  0999 V2000
    1.7310    6.5500   46.3680 C   0  0  0  0  0  0  0  0  0  0  0  0
    2.5330    5.3610   45.9300 C   0  0  0  0  0  0  0  0  0  0  0  0
    2.6360    4.2440   46.7560 C   0  0  0  0  0  0  0  0  0  0  0  0
    3.3660    3.1270   46.3760 C   0  0  0  0  0  0  0  0  0  0  0  0
    3.9950    3.1500   45.1640 C   0  0  0  0  0  0  0  0  0  0  0  0
    4.7190    2.0680   44.7850 F   0  0  0  0  0  0  0  0  0  0  0  0
    3.9350    4.2210   44.3090 C   0  0  0  0  0  0  0  0  0  0  0  0
    3.1910    5.3260   44.6980 C   0  0  0  0  0  0  0  0  0  0  0  0
    3.1200    6.4600   43.8530 N   0  0  0  0  0  0  0  0  0  0  0  0
    2.8750    6.5300   42.5270 C   0  0  0  0  0  0  0  0  0  0  0  0
    2.5750    5.5580   41.8400 O   0  0  0  0  0  0  0  0  0  0  0  0
    3.0080    7.9060   41.9310 C   0  0  0  0  0  0  0  0  0  0  0  0
    4.0640    8.2410   41.0880 C   0  0  0  0  0  0  0  0  0  0  0  0
    4.1390    9.5310   40.5950 C   0  0  0  0  0  0  0  0  0  0  0  0
    3.2580   10.4920   40.8910 N   0  0  0  0  0  0  0  0  0  0  0  0
    2.2570   10.1650   41.7100 C   0  0  0  0  0  0  0  0  0  0  0  0
    2.0910    8.9050   42.2550 C   0  0  0  0  0  0  0  0  0  0  0  0
  1  2  1  0
  2  3  2  0
  3  4  1  0
  4  5  2  0
  5  6  1  0
  5  7  1  0
  7  8  2  0
  8  9  1  0
  9 10  1  0
 10 11  2  0
 10 12  1  0
 12 13  2  0
 13 14  1  0
 14 15  2  0
 15 16  1  0
 16 17  2  0
  2  8  1  0
 12 17  1  0
M  END
$$$$
