LYSRSCPZ-x0421_B_612_1_LYSRSCPZ-x0602+B+701+1__LIG
     RDKit          3D

 15 16  0  0  0  0  0  0  0  0999 V2000
   -0.1530  -13.6560   26.4510 C   0  0  0  0  0  0  0  0  0  0  0  0
    1.2850  -13.8670   26.3280 N   0  0  0  0  0  0  0  0  0  0  0  0
    2.0550  -14.8140   26.9070 C   0  0  0  0  0  0  0  0  0  0  0  0
    3.3330  -14.6120   26.4750 C   0  0  0  0  0  0  0  0  0  0  0  0
    4.7090  -15.5280   26.9280 Cl  0  0  0  0  0  0  0  0  0  0  0  0
    3.2950  -13.5030   25.6160 C   0  0  0  0  0  0  0  0  0  0  0  0
    2.0350  -13.0540   25.5340 N   0  0  0  0  0  0  0  0  0  0  0  0
    4.3610  -12.8310   24.8470 C   0  0  0  0  0  0  0  0  0  0  0  0
    5.3220  -13.4720   24.4050 O   0  0  0  0  0  0  0  0  0  0  0  0
    4.2260  -11.5090   24.6490 N   0  0  0  0  0  0  0  0  0  0  0  0
    5.0840  -10.7770   23.7330 C   0  0  0  0  0  0  0  0  0  0  0  0
    4.5420  -10.7530   22.3030 C   0  0  0  0  0  0  0  0  0  0  0  0
    5.2040   -9.5410   21.6540 C   0  0  0  0  0  0  0  0  0  0  0  0
    5.7310   -8.6780   22.7820 C   0  0  0  0  0  0  0  0  0  0  0  0
    5.2180   -9.2990   24.0770 C   0  0  0  0  0  0  0  0  0  0  0  0
  1  2  1  0
  2  3  1  0
  3  4  2  0
  4  5  1  0
  4  6  1  0
  6  7  2  0
  6  8  1  0
  8  9  2  0
  8 10  1  0
 10 11  1  0
 11 12  1  0
 12 13  1  0
 13 14  1  0
 14 15  1  0
  2  7  1  0
 11 15  1  0
M  END
$$$$
