LYSRSCPZ-x0602_B_701_1_LYSRSCPZ-x0602+B+701+1__LIG
     RDKit          3D

 14 14  0  0  0  0  0  0  0  0999 V2000
    5.7720   -8.5580   24.7050 C   0  0  0  0  0  0  0  0  0  0  0  0
    5.3600   -9.3000   23.5260 N   0  0  0  0  0  0  0  0  0  0  0  0
    5.4000   -8.5820   22.2610 C   0  0  0  0  0  0  0  0  0  0  0  0
    4.9900  -10.6060   23.5990 C   0  0  0  0  0  0  0  0  0  0  0  0
    4.7050  -11.2450   24.8300 C   0  0  0  0  0  0  0  0  0  0  0  0
    4.3460  -12.5860   24.8280 C   0  0  0  0  0  0  0  0  0  0  0  0
    4.0000  -13.2900   26.1160 C   0  0  0  0  0  0  0  0  0  0  0  0
    4.5240  -14.6490   26.1850 N   0  0  0  0  0  0  0  0  0  0  0  0
    3.8960  -15.7190   25.6950 C   0  0  0  0  0  0  0  0  0  0  0  0
    4.5160  -16.6970   25.2880 O   0  0  0  0  0  0  0  0  0  0  0  0
    2.3980  -15.6860   25.7010 C   0  0  0  0  0  0  0  0  0  0  0  0
    4.2970  -13.2530   23.6170 C   0  0  0  0  0  0  0  0  0  0  0  0
    4.6120  -12.5720   22.4590 C   0  0  0  0  0  0  0  0  0  0  0  0
    4.9510  -11.2810   22.4230 N   0  0  0  0  0  0  0  0  0  0  0  0
  1  2  1  0
  2  3  1  0
  2  4  1  0
  4  5  2  0
  5  6  1  0
  6  7  1  0
  7  8  1  0
  8  9  1  0
  9 10  2  0
  9 11  1  0
  6 12  2  0
 12 13  1  0
 13 14  2  0
  4 14  1  0
M  END
$$$$
