LYSRSCPZ-x0492_A_901_1_LYSRSCPZ-x0602+B+701+1__LIG
     RDKit          3D

 15 16  0  0  0  0  0  0  0  0999 V2000
    5.5420  -13.7790   24.6260 O   0  0  0  0  0  0  0  0  0  0  0  0
    4.4100  -13.3260   24.7310 C   0  0  0  0  0  0  0  0  0  0  0  0
    3.9050  -12.3910   23.9130 N   0  0  0  0  0  0  0  0  0  0  0  0
    4.6360  -11.7870   22.8000 C   0  0  0  0  0  0  0  0  0  0  0  0
    5.1660  -10.4400   23.1150 C   0  0  0  0  0  0  0  0  0  0  0  0
    5.9690  -10.0010   24.0880 C   0  0  0  0  0  0  0  0  0  0  0  0
    6.1040   -8.6020   23.9240 C   0  0  0  0  0  0  0  0  0  0  0  0
    5.3510   -8.2690   22.8300 C   0  0  0  0  0  0  0  0  0  0  0  0
    4.7710   -9.3990   22.3220 O   0  0  0  0  0  0  0  0  0  0  0  0
    3.5170  -13.8040   25.8330 C   0  0  0  0  0  0  0  0  0  0  0  0
    3.9540  -14.7910   26.6990 C   0  0  0  0  0  0  0  0  0  0  0  0
    3.1940  -15.2420   27.6970 N   0  0  0  0  0  0  0  0  0  0  0  0
    1.9870  -14.6880   27.8050 C   0  0  0  0  0  0  0  0  0  0  0  0
    1.5520  -13.6940   26.9450 C   0  0  0  0  0  0  0  0  0  0  0  0
    2.3100  -13.2410   25.9470 N   0  0  0  0  0  0  0  0  0  0  0  0
  1  2  2  0
  2  3  1  0
  3  4  1  0
  4  5  1  0
  5  6  2  0
  6  7  1  0
  7  8  2  0
  8  9  1  0
  2 10  1  0
 10 11  2  0
 11 12  1  0
 12 13  2  0
 13 14  1  0
 14 15  2  0
  5  9  1  0
 10 15  1  0
M  END
$$$$
