LYSRSCPZ-x0479_A_805_1_LYSRSCPZ-x0407+D+802+1__LIG
     RDKit          3D

 18 20  0  0  0  0  0  0  0  0999 V2000
    4.0420    1.7820   45.7990 F   0  0  0  0  0  0  0  0  0  0  0  0
    4.0150    2.9020   45.0360 C   0  0  0  0  0  0  0  0  0  0  0  0
    4.3380    2.7900   43.7140 C   0  0  0  0  0  0  0  0  0  0  0  0
    4.3140    3.9310   42.9300 C   0  0  0  0  0  0  0  0  0  0  0  0
    3.9660    5.1760   43.4780 C   0  0  0  0  0  0  0  0  0  0  0  0
    3.6530    5.2310   44.8450 C   0  0  0  0  0  0  0  0  0  0  0  0
    3.6700    4.0860   45.6260 C   0  0  0  0  0  0  0  0  0  0  0  0
    3.9920    6.3260   42.7020 N   0  0  0  0  0  0  0  0  0  0  0  0
    4.8960    6.4860   41.5520 C   0  0  0  0  0  0  0  0  0  0  0  0
    4.1960    7.1270   40.3770 C   0  0  0  0  0  0  0  0  0  0  0  0
    3.5670    8.3950   40.7510 N   0  0  0  0  0  0  0  0  0  0  0  0
    3.6460    8.7120   42.1780 C   0  0  0  0  0  0  0  0  0  0  0  0
    3.1980    7.5260   43.0050 C   0  0  0  0  0  0  0  0  0  0  0  0
    2.9290    9.1440   39.8260 C   0  0  0  0  0  0  0  0  0  0  0  0
    2.2850    8.6010   38.9270 O   0  0  0  0  0  0  0  0  0  0  0  0
    3.0780   10.6140   39.8690 C   0  0  0  0  0  0  0  0  0  0  0  0
    3.1880   11.3560   38.5800 C   0  0  0  0  0  0  0  0  0  0  0  0
    4.3790   11.1920   39.4290 C   0  0  0  0  0  0  0  0  0  0  0  0
  1  2  1  0
  2  3  2  0
  3  4  1  0
  4  5  2  0
  5  6  1  0
  6  7  2  0
  5  8  1  0
  8  9  1  0
  9 10  1  0
 10 11  1  0
 11 12  1  0
 12 13  1  0
 11 14  1  0
 14 15  2  0
 14 16  1  0
 16 17  1  0
 17 18  1  0
  2  7  1  0
  8 13  1  0
 16 18  1  0
M  END
$$$$
