LYSRSCPZ-x0479_C_1202_1_LYSRSCPZ-x0407+D+802+1__LIG
     RDKit          3D

 18 20  0  0  0  0  0  0  0  0999 V2000
    3.9420    2.0130   46.2730 F   0  0  0  0  0  0  0  0  0  0  0  0
    3.8910    2.9840   45.3250 C   0  0  0  0  0  0  0  0  0  0  0  0
    3.3930    4.2130   45.6620 C   0  0  0  0  0  0  0  0  0  0  0  0
    3.3460    5.1970   44.6900 C   0  0  0  0  0  0  0  0  0  0  0  0
    3.8060    4.9360   43.3890 C   0  0  0  0  0  0  0  0  0  0  0  0
    4.3000    3.6550   43.1030 C   0  0  0  0  0  0  0  0  0  0  0  0
    4.3470    2.6780   44.0760 C   0  0  0  0  0  0  0  0  0  0  0  0
    3.8010    5.9030   42.4040 N   0  0  0  0  0  0  0  0  0  0  0  0
    4.4880    5.6800   41.1170 C   0  0  0  0  0  0  0  0  0  0  0  0
    5.1330    6.9230   40.5450 C   0  0  0  0  0  0  0  0  0  0  0  0
    4.1630    8.0100   40.5720 N   0  0  0  0  0  0  0  0  0  0  0  0
    3.8320    8.3400   41.9520 C   0  0  0  0  0  0  0  0  0  0  0  0
    3.0790    7.1760   42.5590 C   0  0  0  0  0  0  0  0  0  0  0  0
    3.5710    8.5320   39.4700 C   0  0  0  0  0  0  0  0  0  0  0  0
    3.7540    8.0170   38.3630 O   0  0  0  0  0  0  0  0  0  0  0  0
    2.6820    9.7080   39.6280 C   0  0  0  0  0  0  0  0  0  0  0  0
    2.7410   10.7980   38.6130 C   0  0  0  0  0  0  0  0  0  0  0  0
    1.5840    9.8850   38.6370 C   0  0  0  0  0  0  0  0  0  0  0  0
  1  2  1  0
  2  3  2  0
  3  4  1  0
  4  5  2  0
  5  6  1  0
  6  7  2  0
  5  8  1  0
  8  9  1  0
  9 10  1  0
 10 11  1  0
 11 12  1  0
 12 13  1  0
 11 14  1  0
 14 15  2  0
 14 16  1  0
 16 17  1  0
 17 18  1  0
  2  7  1  0
  8 13  1  0
 16 18  1  0
M  END
$$$$
