LYSRSCPZ-x0501_A_901_1_LYSRSCPZ-x0602+B+701+1__LIG
     RDKit          3D

 17 18  0  0  0  0  0  0  0  0999 V2000
    5.0930  -14.7000   25.2900 O   0  0  0  0  0  0  0  0  0  0  0  0
    3.8960  -14.7430   25.5540 C   0  0  0  0  0  0  0  0  0  0  0  0
    2.9270  -13.8310   24.8590 C   0  0  0  0  0  0  0  0  0  0  0  0
    3.5840  -12.8230   23.9070 C   0  0  0  0  0  0  0  0  0  0  0  0
    3.5990  -11.4340   24.4890 C   0  0  0  0  0  0  0  0  0  0  0  0
    4.3050  -10.3700   23.6860 C   0  0  0  0  0  0  0  0  0  0  0  0
    4.8860   -9.2850   24.3210 C   0  0  0  0  0  0  0  0  0  0  0  0
    5.5300   -8.2980   23.5890 C   0  0  0  0  0  0  0  0  0  0  0  0
    5.5830   -8.3770   22.2180 C   0  0  0  0  0  0  0  0  0  0  0  0
    5.0120   -9.4460   21.5740 C   0  0  0  0  0  0  0  0  0  0  0  0
    4.3740  -10.4390   22.3020 C   0  0  0  0  0  0  0  0  0  0  0  0
    3.4230  -15.5870   26.4900 N   0  0  0  0  0  0  0  0  0  0  0  0
    2.0200  -15.9840   26.6450 C   0  0  0  0  0  0  0  0  0  0  0  0
    1.5380  -15.6080   28.0240 C   0  0  0  0  0  0  0  0  0  0  0  0
    2.4140  -16.0430   29.0600 O   0  0  0  0  0  0  0  0  0  0  0  0
    3.4560  -16.8780   28.5620 C   0  0  0  0  0  0  0  0  0  0  0  0
    4.2910  -16.2010   27.4980 C   0  0  0  0  0  0  0  0  0  0  0  0
  1  2  2  0
  2  3  1  0
  3  4  1  0
  4  5  1  0
  5  6  1  0
  6  7  2  0
  7  8  1  0
  8  9  2  0
  9 10  1  0
 10 11  2  0
  2 12  1  0
 12 13  1  0
 13 14  1  0
 14 15  1  0
 15 16  1  0
 16 17  1  0
  6 11  1  0
 12 17  1  0
M  END
$$$$
