LYSRSCPZ-x0634_A_805_1_LYSRSCPZ-x0602+B+701+1__LIG
     RDKit          3D

 12 12  0  0  0  0  0  0  0  0999 V2000
    3.1240  -12.0290   22.2530 C   0  0  0  0  0  0  0  0  0  0  0  0
    2.5620  -12.6090   23.5010 C   0  0  0  0  0  0  0  0  0  0  0  0
    3.6120  -13.3940   24.1100 O   0  0  0  0  0  0  0  0  0  0  0  0
    3.3210  -14.0000   25.2830 C   0  0  0  0  0  0  0  0  0  0  0  0
    4.3360  -14.6360   25.9840 C   0  0  0  0  0  0  0  0  0  0  0  0
    4.0060  -15.2330   27.1510 C   0  0  0  0  0  0  0  0  0  0  0  0
    2.6980  -15.1850   27.5930 C   0  0  0  0  0  0  0  0  0  0  0  0
    1.7560  -14.5230   26.8230 C   0  0  0  0  0  0  0  0  0  0  0  0
    2.0590  -13.9280   25.6710 N   0  0  0  0  0  0  0  0  0  0  0  0
    2.2900  -15.8130   28.8760 C   0  0  0  0  0  0  0  0  0  0  0  0
    3.0900  -16.5500   29.4700 O   0  0  0  0  0  0  0  0  0  0  0  0
    1.0800  -15.5300   29.3340 N   0  0  0  0  0  0  0  0  0  0  0  0
  1  2  1  0
  2  3  1  0
  3  4  1  0
  4  5  2  0
  5  6  1  0
  6  7  2  0
  7  8  1  0
  8  9  2  0
  7 10  1  0
 10 11  2  0
 10 12  1  0
  4  9  1  0
M  END
$$$$
