LYSRSCPZ-x0436_A_805_1_LYSRSCPZ-x0407+D+802+1__LIG
     RDKit          3D

 15 15  0  0  0  0  0  0  0  0999 V2000
    4.6630    7.3050   37.5840 N   0  0  0  0  0  0  0  0  0  0  0  0
    5.6060    8.1090   38.0570 C   0  0  0  0  0  0  0  0  0  0  0  0
    6.3710    9.2420   37.0570 S   0  0  0  0  0  0  0  0  0  0  0  0
    5.9410    8.0140   39.3560 N   0  0  0  0  0  0  0  0  0  0  0  0
    5.4770    7.0180   40.2520 C   0  0  0  0  0  0  0  0  0  0  0  0
    4.4330    7.2440   41.1410 C   0  0  0  0  0  0  0  0  0  0  0  0
    3.9910    6.2260   41.9650 C   0  0  0  0  0  0  0  0  0  0  0  0
    4.5970    4.9760   41.9070 C   0  0  0  0  0  0  0  0  0  0  0  0
    4.1770    3.9020   42.7390 O   0  0  0  0  0  0  0  0  0  0  0  0
    3.8050    4.1590   43.9780 C   0  0  0  0  0  0  0  0  0  0  0  0
    4.4640    5.1370   44.5590 F   0  0  0  0  0  0  0  0  0  0  0  0
    2.5410    4.4990   44.0330 F   0  0  0  0  0  0  0  0  0  0  0  0
    3.9640    3.0790   44.7110 F   0  0  0  0  0  0  0  0  0  0  0  0
    5.6260    4.7460   41.0060 C   0  0  0  0  0  0  0  0  0  0  0  0
    6.0600    5.7620   40.1800 C   0  0  0  0  0  0  0  0  0  0  0  0
  1  2  1  0
  2  3  2  0
  2  4  1  0
  4  5  1  0
  5  6  2  0
  6  7  1  0
  7  8  2  0
  8  9  1  0
  9 10  1  0
 10 11  1  0
 10 12  1  0
 10 13  1  0
  8 14  1  0
 14 15  2  0
  5 15  1  0
M  END
$$$$
