LYSRSCPZ-x0502_A_1001_1_LYSRSCPZ-x0602+B+701+1__LIG
     RDKit          3D

 15 16  0  0  0  0  0  0  0  0999 V2000
    4.6530  -15.7490   27.1240 C   0  0  0  0  0  0  0  0  0  0  0  0
    3.4480  -14.8860   26.9560 C   0  0  0  0  0  0  0  0  0  0  0  0
    2.3960  -15.0610   27.8390 N   0  0  0  0  0  0  0  0  0  0  0  0
    1.4520  -14.2010   27.6060 C   0  0  0  0  0  0  0  0  0  0  0  0
    1.7000  -13.2110   26.2400 S   0  0  0  0  0  0  0  0  0  0  0  0
    3.2610  -13.8890   26.0300 C   0  0  0  0  0  0  0  0  0  0  0  0
    4.1620  -13.3320   25.0170 C   0  0  0  0  0  0  0  0  0  0  0  0
    5.3640  -13.5980   25.0460 O   0  0  0  0  0  0  0  0  0  0  0  0
    3.5740  -12.5420   24.1110 N   0  0  0  0  0  0  0  0  0  0  0  0
    4.2780  -11.9070   23.0020 C   0  0  0  0  0  0  0  0  0  0  0  0
    4.1060  -10.4030   22.9650 C   0  0  0  0  0  0  0  0  0  0  0  0
    4.9580   -9.7210   21.8800 C   0  0  0  0  0  0  0  0  0  0  0  0
    5.3690   -8.3970   22.4890 C   0  0  0  0  0  0  0  0  0  0  0  0
    5.5450   -8.7070   23.9510 C   0  0  0  0  0  0  0  0  0  0  0  0
    4.4680   -9.7240   24.2970 C   0  0  0  0  0  0  0  0  0  0  0  0
  1  2  1  0
  2  3  1  0
  3  4  2  0
  4  5  1  0
  5  6  1  0
  6  7  1  0
  7  8  2  0
  7  9  1  0
  9 10  1  0
 10 11  1  0
 11 12  1  0
 12 13  1  0
 13 14  1  0
 14 15  1  0
  2  6  2  0
 11 15  1  0
M  END
$$$$
