LYSRSCPZ-x0426_A_805_1_LYSRSCPZ-x0426+A+805+1__LIG
     RDKit          3D

 17 18  0  0  0  0  0  0  0  0999 V2000
    3.8320  -24.7100   21.2780 C   0  0  0  0  0  0  0  0  0  0  0  0
    3.7150  -25.9090   20.3900 C   0  0  0  0  0  0  0  0  0  0  0  0
    3.4930  -25.5670   18.9850 N   0  0  0  0  0  0  0  0  0  0  0  0
    2.8040  -26.2690   18.0580 C   0  0  0  0  0  0  0  0  0  0  0  0
    2.8830  -25.5530   16.8710 C   0  0  0  0  0  0  0  0  0  0  0  0
    2.2700  -25.9840   15.5730 C   0  0  0  0  0  0  0  0  0  0  0  0
    2.1390  -24.8960   14.6140 N   0  0  0  0  0  0  0  0  0  0  0  0
    2.1530  -25.0900   13.2900 C   0  0  0  0  0  0  0  0  0  0  0  0
    2.4690  -26.1700   12.7970 O   0  0  0  0  0  0  0  0  0  0  0  0
    1.7850  -23.9380   12.4090 C   0  0  0  0  0  0  0  0  0  0  0  0
    0.8200  -23.0150   12.7790 C   0  0  0  0  0  0  0  0  0  0  0  0
    0.5170  -21.9720   11.9260 C   0  0  0  0  0  0  0  0  0  0  0  0
    1.1890  -21.8820   10.7280 C   0  0  0  0  0  0  0  0  0  0  0  0
    2.1140  -22.7670   10.3330 N   0  0  0  0  0  0  0  0  0  0  0  0
    2.3990  -23.7680   11.1750 C   0  0  0  0  0  0  0  0  0  0  0  0
    3.6330  -24.4330   17.1700 C   0  0  0  0  0  0  0  0  0  0  0  0
    4.0060  -24.4330   18.4500 N   0  0  0  0  0  0  0  0  0  0  0  0
  1  2  1  0
  2  3  1  0
  3  4  1  0
  4  5  2  0
  5  6  1  0
  6  7  1  0
  7  8  1  0
  8  9  2  0
  8 10  1  0
 10 11  2  0
 11 12  1  0
 12 13  2  0
 13 14  1  0
 14 15  2  0
  5 16  1  0
 16 17  2  0
  3 17  1  0
 10 15  1  0
M  END
$$$$
