LYSRSCPZ-x0472_C_1301_1_LYSRSCPZ-x0472+A+805+1__LIG
     RDKit          3D

 14 14  0  0  0  0  0  0  0  0999 V2000
   22.3530    8.1250   23.0640 C   0  0  0  0  0  0  0  0  0  0  0  0
   21.6450    8.7160   24.2030 N   0  0  0  0  0  0  0  0  0  0  0  0
   21.7910    7.9340   25.4360 C   0  0  0  0  0  0  0  0  0  0  0  0
   23.1590    7.3440   25.6750 C   0  0  0  0  0  0  0  0  0  0  0  0
   24.2840    8.1430   25.7970 C   0  0  0  0  0  0  0  0  0  0  0  0
   25.5220    7.5800   26.0780 C   0  0  0  0  0  0  0  0  0  0  0  0
   25.6580    6.2230   26.2480 C   0  0  0  0  0  0  0  0  0  0  0  0
   24.5410    5.4550   26.1220 C   0  0  0  0  0  0  0  0  0  0  0  0
   24.6410    4.1140   26.2870 F   0  0  0  0  0  0  0  0  0  0  0  0
   23.3030    5.9710   25.8430 C   0  0  0  0  0  0  0  0  0  0  0  0
   21.5500   10.3290   24.3070 S   0  0  0  0  0  0  0  0  0  0  0  0
   22.8610   10.8550   24.1960 O   0  0  0  0  0  0  0  0  0  0  0  0
   20.7310   10.6520   25.4180 O   0  0  0  0  0  0  0  0  0  0  0  0
   20.7490   10.6900   22.9770 N   0  0  0  0  0  0  0  0  0  0  0  0
  1  2  1  0
  2  3  1  0
  3  4  1  0
  4  5  2  0
  5  6  1  0
  6  7  2  0
  7  8  1  0
  8  9  1  0
  8 10  2  0
  2 11  1  0
 11 12  2  0
 11 13  2  0
 11 14  1  0
  4 10  1  0
M  END
$$$$
