LYSRSCPZ-x0485_D_902_1_LYSRSCPZ-x0602+B+701+1__LIG
     RDKit          3D

 17 18  0  0  0  0  0  0  0  0999 V2000
    4.4840  -12.2090   22.2270 C   0  0  0  0  0  0  0  0  0  0  0  0
    4.8090  -10.8650   22.8010 C   0  0  0  0  0  0  0  0  0  0  0  0
    5.2390   -9.8380   21.9580 C   0  0  0  0  0  0  0  0  0  0  0  0
    5.5580   -8.5790   22.4470 C   0  0  0  0  0  0  0  0  0  0  0  0
    5.4160   -8.3520   23.7850 C   0  0  0  0  0  0  0  0  0  0  0  0
    5.6980   -7.1130   24.2710 F   0  0  0  0  0  0  0  0  0  0  0  0
    4.9880   -9.3130   24.6640 C   0  0  0  0  0  0  0  0  0  0  0  0
    4.7030  -10.5810   24.1700 C   0  0  0  0  0  0  0  0  0  0  0  0
    4.2230  -11.5620   25.0870 N   0  0  0  0  0  0  0  0  0  0  0  0
    4.5230  -12.8740   25.2270 C   0  0  0  0  0  0  0  0  0  0  0  0
    5.4670  -13.4100   24.6590 O   0  0  0  0  0  0  0  0  0  0  0  0
    3.6230  -13.6650   26.1380 C   0  0  0  0  0  0  0  0  0  0  0  0
    4.1110  -14.7540   26.8540 C   0  0  0  0  0  0  0  0  0  0  0  0
    3.2510  -15.4460   27.6860 C   0  0  0  0  0  0  0  0  0  0  0  0
    1.9630  -15.1370   27.8430 N   0  0  0  0  0  0  0  0  0  0  0  0
    1.5050  -14.0950   27.1550 C   0  0  0  0  0  0  0  0  0  0  0  0
    2.2790  -13.3440   26.2930 C   0  0  0  0  0  0  0  0  0  0  0  0
  1  2  1  0
  2  3  2  0
  3  4  1  0
  4  5  2  0
  5  6  1  0
  5  7  1  0
  7  8  2  0
  8  9  1  0
  9 10  1  0
 10 11  2  0
 10 12  1  0
 12 13  2  0
 13 14  1  0
 14 15  2  0
 15 16  1  0
 16 17  2  0
  2  8  1  0
 12 17  1  0
M  END
$$$$
