LYSRSCPZ-x0502_B_701_1_LYSRSCPZ-x0602+B+701+1__LIG
     RDKit          3D

 15 16  0  0  0  0  0  0  0  0999 V2000
    4.6160  -15.6000   27.0360 C   0  0  0  0  0  0  0  0  0  0  0  0
    3.4240  -14.7150   26.8730 C   0  0  0  0  0  0  0  0  0  0  0  0
    2.3760  -14.8620   27.7630 N   0  0  0  0  0  0  0  0  0  0  0  0
    1.4210  -14.0090   27.5220 C   0  0  0  0  0  0  0  0  0  0  0  0
    1.6920  -13.0180   26.1600 S   0  0  0  0  0  0  0  0  0  0  0  0
    3.2390  -13.7360   25.9280 C   0  0  0  0  0  0  0  0  0  0  0  0
    4.1280  -13.2390   24.8600 C   0  0  0  0  0  0  0  0  0  0  0  0
    5.3050  -13.5870   24.8160 O   0  0  0  0  0  0  0  0  0  0  0  0
    3.5530  -12.4030   23.9920 N   0  0  0  0  0  0  0  0  0  0  0  0
    4.1730  -11.9390   22.7590 C   0  0  0  0  0  0  0  0  0  0  0  0
    4.9360  -10.6450   22.9280 C   0  0  0  0  0  0  0  0  0  0  0  0
    4.8820   -9.7020   21.7280 C   0  0  0  0  0  0  0  0  0  0  0  0
    5.3200   -8.3470   22.2800 C   0  0  0  0  0  0  0  0  0  0  0  0
    5.1540   -8.4210   23.7820 C   0  0  0  0  0  0  0  0  0  0  0  0
    4.4240   -9.7310   24.0320 C   0  0  0  0  0  0  0  0  0  0  0  0
  1  2  1  0
  2  3  1  0
  3  4  2  0
  4  5  1  0
  5  6  1  0
  6  7  1  0
  7  8  2  0
  7  9  1  0
  9 10  1  0
 10 11  1  0
 11 12  1  0
 12 13  1  0
 13 14  1  0
 14 15  1  0
  2  6  2  0
 11 15  1  0
M  END
$$$$
