LYSRSCPZ-x0675_A_901_1_LYSRSCPZ-x0602+B+701+1__LIG
     RDKit          3D

 14 15  0  0  0  0  0  0  0  0999 V2000
    2.8710  -19.8850   22.9790 Cl  0  0  0  0  0  0  0  0  0  0  0  0
    4.0000  -20.7630   21.9880 C   0  0  0  0  0  0  0  0  0  0  0  0
    5.1000  -20.1100   21.4830 C   0  0  0  0  0  0  0  0  0  0  0  0
    5.9920  -20.8180   20.7100 C   0  0  0  0  0  0  0  0  0  0  0  0
    5.7770  -22.1570   20.4350 C   0  0  0  0  0  0  0  0  0  0  0  0
    4.6600  -22.8110   20.9330 C   0  0  0  0  0  0  0  0  0  0  0  0
    4.4320  -24.2760   20.6460 C   0  0  0  0  0  0  0  0  0  0  0  0
    3.3620  -24.5310   19.6810 N   0  0  0  0  0  0  0  0  0  0  0  0
    3.6660  -23.9560   18.3720 C   0  0  0  0  0  0  0  0  0  0  0  0
    2.6070  -24.3390   17.3710 C   0  0  0  0  0  0  0  0  0  0  0  0
    2.4900  -25.7470   17.2060 O   0  0  0  0  0  0  0  0  0  0  0  0
    3.2920  -26.4490   18.1490 C   0  0  0  0  0  0  0  0  0  0  0  0
    3.0880  -25.9640   19.5590 C   0  0  0  0  0  0  0  0  0  0  0  0
    3.7720  -22.0980   21.7200 C   0  0  0  0  0  0  0  0  0  0  0  0
  1  2  1  0
  2  3  2  0
  3  4  1  0
  4  5  2  0
  5  6  1  0
  6  7  1  0
  7  8  1  0
  8  9  1  0
  9 10  1  0
 10 11  1  0
 11 12  1  0
 12 13  1  0
  6 14  2  0
  2 14  1  0
  8 13  1  0
M  END
$$$$
