LYSRSCPZ-x0787_A_805_1_LYSRSCPZ-x0602+B+701+1__LIG
     RDKit          3D

 17 18  0  0  0  0  0  0  0  0999 V2000
    3.0480  -17.4420   27.6630 C   0  0  0  0  0  0  0  0  0  0  0  0
    1.9570  -16.5410   27.2330 C   0  0  0  0  0  0  0  0  0  0  0  0
    2.4580  -15.1970   26.7500 C   0  0  0  0  0  0  0  0  0  0  0  0
    1.7900  -14.0300   26.5710 C   0  0  0  0  0  0  0  0  0  0  0  0
    2.4330  -13.1960   25.6240 C   0  0  0  0  0  0  0  0  0  0  0  0
    3.6590  -13.7250   25.2400 C   0  0  0  0  0  0  0  0  0  0  0  0
    4.1050  -15.0260   26.2720 S   0  0  0  0  0  0  0  0  0  0  0  0
    4.5740  -13.3940   24.1230 C   0  0  0  0  0  0  0  0  0  0  0  0
    5.7120  -13.8570   24.0960 O   0  0  0  0  0  0  0  0  0  0  0  0
    4.0740  -12.5560   23.1960 N   0  0  0  0  0  0  0  0  0  0  0  0
    4.9140  -11.6220   22.4690 C   0  0  0  0  0  0  0  0  0  0  0  0
    5.1690  -10.3940   23.2900 C   0  0  0  0  0  0  0  0  0  0  0  0
    4.4520  -10.0120   24.4110 C   0  0  0  0  0  0  0  0  0  0  0  0
    4.9060   -8.8800   24.9480 N   0  0  0  0  0  0  0  0  0  0  0  0
    5.9520   -8.5090   24.1480 N   0  0  0  0  0  0  0  0  0  0  0  0
    6.6890   -7.2900   24.4840 C   0  0  0  0  0  0  0  0  0  0  0  0
    6.1380   -9.4010   23.1440 C   0  0  0  0  0  0  0  0  0  0  0  0
  1  2  1  0
  2  3  1  0
  3  4  2  0
  4  5  1  0
  5  6  2  0
  6  7  1  0
  6  8  1  0
  8  9  2  0
  8 10  1  0
 10 11  1  0
 11 12  1  0
 12 13  1  0
 13 14  2  0
 14 15  1  0
 15 16  1  0
 15 17  1  0
  3  7  1  0
 12 17  2  0
M  END
$$$$
