LYSRSCPZ-x0489_A_901_1_LYSRSCPZ-x0602+B+701+1__LIG
     RDKit          3D

 17 18  0  0  0  0  0  0  0  0999 V2000
    5.4420   -7.8960   22.7150 C   0  0  0  0  0  0  0  0  0  0  0  0
    5.7440   -8.2660   24.1120 C   0  0  0  0  0  0  0  0  0  0  0  0
    5.3210   -9.6500   24.3110 O   0  0  0  0  0  0  0  0  0  0  0  0
    4.0180   -9.9160   24.2100 C   0  0  0  0  0  0  0  0  0  0  0  0
    3.1550   -9.2530   24.7150 O   0  0  0  0  0  0  0  0  0  0  0  0
    3.7630  -11.1570   23.4040 C   0  0  0  0  0  0  0  0  0  0  0  0
    4.8410  -12.2070   23.6700 C   0  0  0  0  0  0  0  0  0  0  0  0
    4.2470  -13.5540   23.9960 C   0  0  0  0  0  0  0  0  0  0  0  0
    3.3580  -13.4720   25.1550 N   0  0  0  0  0  0  0  0  0  0  0  0
    2.3170  -12.4450   25.0330 C   0  0  0  0  0  0  0  0  0  0  0  0
    2.3770  -11.7330   23.6890 C   0  0  0  0  0  0  0  0  0  0  0  0
    3.4850  -14.3030   26.2320 C   0  0  0  0  0  0  0  0  0  0  0  0
    2.4230  -14.5280   27.1210 C   0  0  0  0  0  0  0  0  0  0  0  0
    2.5650  -15.3500   28.1650 N   0  0  0  0  0  0  0  0  0  0  0  0
    3.7470  -15.9600   28.3200 C   0  0  0  0  0  0  0  0  0  0  0  0
    4.7900  -15.7400   27.4510 C   0  0  0  0  0  0  0  0  0  0  0  0
    4.6600  -14.9190   26.4100 N   0  0  0  0  0  0  0  0  0  0  0  0
  1  2  1  0
  2  3  1  0
  3  4  1  0
  4  5  2  0
  4  6  1  0
  6  7  1  0
  7  8  1  0
  8  9  1  0
  9 10  1  0
 10 11  1  0
  9 12  1  0
 12 13  2  0
 13 14  1  0
 14 15  2  0
 15 16  1  0
 16 17  2  0
  6 11  1  0
 12 17  1  0
M  END
$$$$
