LYSRSCPZ-x0634_A_901_1_LYSRSCPZ-x0602+B+701+1__LIG
     RDKit          3D

 12 12  0  0  0  0  0  0  0  0999 V2000
    5.1510  -11.8080   22.2470 C   0  0  0  0  0  0  0  0  0  0  0  0
    4.1330  -12.3810   23.1820 C   0  0  0  0  0  0  0  0  0  0  0  0
    4.7860  -13.4320   23.9330 O   0  0  0  0  0  0  0  0  0  0  0  0
    4.1840  -13.9180   25.0510 C   0  0  0  0  0  0  0  0  0  0  0  0
    2.8300  -13.6840   25.2730 C   0  0  0  0  0  0  0  0  0  0  0  0
    2.2770  -14.1950   26.4020 C   0  0  0  0  0  0  0  0  0  0  0  0
    3.0480  -14.9350   27.2840 C   0  0  0  0  0  0  0  0  0  0  0  0
    4.3880  -15.1160   26.9740 C   0  0  0  0  0  0  0  0  0  0  0  0
    4.9570  -14.6190   25.8680 N   0  0  0  0  0  0  0  0  0  0  0  0
    2.4560  -15.4790   28.5480 C   0  0  0  0  0  0  0  0  0  0  0  0
    3.1880  -16.0310   29.3850 O   0  0  0  0  0  0  0  0  0  0  0  0
    1.1600  -15.3030   28.7550 N   0  0  0  0  0  0  0  0  0  0  0  0
  1  2  1  0
  2  3  1  0
  3  4  1  0
  4  5  2  0
  5  6  1  0
  6  7  2  0
  7  8  1  0
  8  9  2  0
  7 10  1  0
 10 11  2  0
 10 12  1  0
  4  9  1  0
M  END
$$$$
