LYSRSCPZ-x0492_B_703_1_LYSRSCPZ-x0602+B+701+1__LIG
     RDKit          3D

 15 16  0  0  0  0  0  0  0  0999 V2000
    5.5680  -13.8520   24.6660 O   0  0  0  0  0  0  0  0  0  0  0  0
    4.4540  -13.3870   24.8680 C   0  0  0  0  0  0  0  0  0  0  0  0
    3.9190  -12.4340   24.1000 N   0  0  0  0  0  0  0  0  0  0  0  0
    4.5970  -11.8690   22.9430 C   0  0  0  0  0  0  0  0  0  0  0  0
    5.0890  -10.4950   23.1860 C   0  0  0  0  0  0  0  0  0  0  0  0
    5.9850  -10.0000   24.0450 C   0  0  0  0  0  0  0  0  0  0  0  0
    6.0430   -8.6080   23.8350 C   0  0  0  0  0  0  0  0  0  0  0  0
    5.1500   -8.3320   22.8360 C   0  0  0  0  0  0  0  0  0  0  0  0
    4.5560   -9.4950   22.4250 O   0  0  0  0  0  0  0  0  0  0  0  0
    3.6260  -13.8470   26.0290 C   0  0  0  0  0  0  0  0  0  0  0  0
    4.0960  -14.8370   26.8740 C   0  0  0  0  0  0  0  0  0  0  0  0
    3.3910  -15.2630   27.9270 N   0  0  0  0  0  0  0  0  0  0  0  0
    2.2020  -14.6850   28.1020 C   0  0  0  0  0  0  0  0  0  0  0  0
    1.7290  -13.7040   27.2550 C   0  0  0  0  0  0  0  0  0  0  0  0
    2.4310  -13.2710   26.2080 N   0  0  0  0  0  0  0  0  0  0  0  0
  1  2  2  0
  2  3  1  0
  3  4  1  0
  4  5  1  0
  5  6  2  0
  6  7  1  0
  7  8  2  0
  8  9  1  0
  2 10  1  0
 10 11  2  0
 11 12  1  0
 12 13  2  0
 13 14  1  0
 14 15  2  0
  5  9  1  0
 10 15  1  0
M  END
$$$$
