LYSRSCPZ-x0483_A_901_1_LYSRSCPZ-x0483+A+901+1__LIG
     RDKit          3D

 16 16  0  0  0  0  0  0  0  0999 V2000
   20.2960   20.3000   28.6290 C   0  0  0  0  0  0  0  0  0  0  0  0
   21.3400   20.7460   27.6570 C   0  0  0  0  0  0  0  0  0  0  0  0
   22.5090   20.3670   27.7550 O   0  0  0  0  0  0  0  0  0  0  0  0
   20.9490   21.5820   26.6830 N   0  0  0  0  0  0  0  0  0  0  0  0
   19.5530   21.8250   26.3420 C   0  0  0  0  0  0  0  0  0  0  0  0
   18.8630   22.7420   27.3240 C   0  0  0  0  0  0  0  0  0  0  0  0
   17.4460   23.0700   26.9160 C   0  0  0  0  0  0  0  0  0  0  0  0
   16.5630   22.0680   26.5530 C   0  0  0  0  0  0  0  0  0  0  0  0
   15.2640   22.3530   26.1710 C   0  0  0  0  0  0  0  0  0  0  0  0
   14.8380   23.6670   26.1560 C   0  0  0  0  0  0  0  0  0  0  0  0
   15.7010   24.6860   26.5180 C   0  0  0  0  0  0  0  0  0  0  0  0
   16.9930   24.3770   26.8980 C   0  0  0  0  0  0  0  0  0  0  0  0
   13.1830   24.0390   25.6720 S   0  0  0  0  0  0  0  0  0  0  0  0
   12.3570   23.8710   26.8340 O   0  0  0  0  0  0  0  0  0  0  0  0
   12.8930   23.2740   24.4930 O   0  0  0  0  0  0  0  0  0  0  0  0
   13.1310   25.5870   25.2700 N   0  0  0  0  0  0  0  0  0  0  0  0
  1  2  1  0
  2  3  2  0
  2  4  1  0
  4  5  1  0
  5  6  1  0
  6  7  1  0
  7  8  2  0
  8  9  1  0
  9 10  2  0
 10 11  1  0
 11 12  2  0
 10 13  1  0
 13 14  2  0
 13 15  2  0
 13 16  1  0
  7 12  1  0
M  END
$$$$
