LYSRSCPZ-x0504_A_805_1_LYSRSCPZ-x0602+B+701+1__LIG
     RDKit          3D

 15 15  0  0  0  0  0  0  0  0999 V2000
    5.8230   -8.7820   24.1380 C   0  0  0  0  0  0  0  0  0  0  0  0
    4.6200   -9.5480   23.8360 N   0  0  0  0  0  0  0  0  0  0  0  0
    3.4650   -9.2900   24.6890 C   0  0  0  0  0  0  0  0  0  0  0  0
    4.5940  -10.3300   22.7630 C   0  0  0  0  0  0  0  0  0  0  0  0
    4.9990   -9.9040   21.6800 O   0  0  0  0  0  0  0  0  0  0  0  0
    4.1420  -11.7870   22.9070 C   0  0  0  0  0  0  0  0  0  0  0  0
    3.5390  -12.1700   24.1720 N   0  0  0  0  0  0  0  0  0  0  0  0
    4.0280  -13.1670   24.9290 C   0  0  0  0  0  0  0  0  0  0  0  0
    5.1680  -13.6120   24.7950 O   0  0  0  0  0  0  0  0  0  0  0  0
    3.1250  -13.7580   25.9710 C   0  0  0  0  0  0  0  0  0  0  0  0
    1.5890  -13.0500   26.3090 S   0  0  0  0  0  0  0  0  0  0  0  0
    1.2400  -14.2840   27.4190 C   0  0  0  0  0  0  0  0  0  0  0  0
    2.2310  -15.0880   27.6490 N   0  0  0  0  0  0  0  0  0  0  0  0
    3.2830  -14.8570   26.7840 C   0  0  0  0  0  0  0  0  0  0  0  0
    4.4410  -15.8020   26.8330 C   0  0  0  0  0  0  0  0  0  0  0  0
  1  2  1  0
  2  3  1  0
  2  4  1  0
  4  5  2  0
  4  6  1  0
  6  7  1  0
  7  8  1  0
  8  9  2  0
  8 10  1  0
 10 11  1  0
 11 12  1  0
 12 13  2  0
 13 14  1  0
 14 15  1  0
 10 14  2  0
M  END
$$$$
