LYSRSCPZ-x0540_A_805_1_LYSRSCPZ-x0602+B+701+1__LIG
     RDKit          3D

 13 13  0  0  0  0  0  0  0  0999 V2000
    5.3880   -7.6940   22.2150 C   0  0  0  0  0  0  0  0  0  0  0  0
    5.3980   -8.8230   23.2370 C   0  0  0  0  0  0  0  0  0  0  0  0
    6.3420   -8.4910   24.3850 C   0  0  0  0  0  0  0  0  0  0  0  0
    3.9900   -9.2010   23.7700 C   0  0  1  0  0  0  0  0  0  0  0  0
    2.8330   -8.8740   22.8720 N   0  0  0  0  0  0  0  0  0  0  0  0
    3.9440  -10.6890   24.0980 C   0  0  0  0  0  0  0  0  0  0  0  0
    3.7080  -11.5080   23.2020 O   0  0  0  0  0  0  0  0  0  0  0  0
    4.1930  -11.0740   25.3700 N   0  0  0  0  0  0  0  0  0  0  0  0
    4.2670  -12.4870   25.7610 C   0  0  0  0  0  0  0  0  0  0  0  0
    3.1580  -12.8170   26.7310 C   0  0  0  0  0  0  0  0  0  0  0  0
    2.8420  -11.7300   27.5970 O   0  0  0  0  0  0  0  0  0  0  0  0
    3.9660  -10.8800   27.7950 C   0  0  0  0  0  0  0  0  0  0  0  0
    4.3730  -10.1790   26.5210 C   0  0  0  0  0  0  0  0  0  0  0  0
  1  2  1  0
  2  3  1  0
  2  4  1  0
  4  5  1  6
  4  6  1  0
  6  7  2  0
  6  8  1  0
  8  9  1  0
  9 10  1  0
 10 11  1  0
 11 12  1  0
 12 13  1  0
  8 13  1  0
M  CHG  1   5   1
M  END
$$$$
